
**** 09/30/21 12:33:55 ******* PSpice 17.4.0 (Nov 2018) ******* ID# 0 ********

 ** Profile: "SCHEMATIC1-sim1"  [ C:\Modeling\LM2903B_ti\lm2903b-pspicefiles\schematic1\sim1.sim ] 


 ****     CIRCUIT DESCRIPTION


******************************************************************************




** Creating circuit file "sim1.cir" 
** WARNING: THIS AUTOMATICALLY GENERATED FILE MAY BE OVERWRITTEN BY SUBSEQUENT SIMULATIONS

*Libraries: 
* Profile Libraries :
* Local Libraries :
* From [PSPICE NETLIST] section of C:\SPB_DATA\cdssetup\OrCAD_PSpice\17.4.0\PSpice.ini file:
.lib "nom.lib" 

*Analysis directives: 
.TRAN  0 30u 0 
.OPTIONS ADVCONV
.PROBE64 V(alias(*)) I(alias(*)) W(alias(*)) D(alias(*)) NOISE(alias(*)) 
.INC "..\SCHEMATIC1.net" 



**** INCLUDING SCHEMATIC1.net ****
* source LM2903B
.EXTERNAL INPUT GND
.EXTERNAL INPUT IN+
.EXTERNAL INPUT IN-
.EXTERNAL INPUT OUT
.EXTERNAL INPUT Vcc
V_VINN2         VCC 0 36
R_R2         0 GND  1m TC=0,0 
V_VINN         IN- 0 5
V_V1         IN+ 0  
+SIN 5 100m 100k 0 0 0
R_R3         VCC OUT  10k TC=0,0 
X_U1         IN+ IN- VCC GND OUT LM2903B

**** RESUMING sim1.cir ****
.END

ERROR(ORPSIM-15108): Subcircuit LM2903B used by X_U1 is undefined
